Info: SIMULATION PARAMETERS:
Info: TIMESTEP               2
Info: NUMBER OF STEPS        0
Info: STEPS PER CYCLE        10
Info: FIRST LDB TIMESTEP     50
Info: LAST LDB TIMESTEP     -1
Info: HOM BACKGROUND SCALING 1
Info: MIN ATOMS PER PATCH    40
Info: INITIAL TEMPERATURE    312
Info: CENTER OF MASS MOVING INITIALLY? NO
Info: DIELECTRIC             1
Info: EXCLUDE                SCALED ONE-FOUR
Info: 1-4 ELECTROSTATICS SCALED BY 1
Info: MODIFIED 1-4 VDW PARAMETERS WILL BE USED
Info: DCD FILENAME           helix_1MSalt.dcd
Info: DCD FREQUENCY          250
Info: DCD FIRST STEP         250
Info: XST FILENAME           helix_1MSalt.xst
Info: XST FREQUENCY          250
Info: NO VELOCITY DCD OUTPUT
Info: NO FORCE DCD OUTPUT
Info: OUTPUT FILENAME        helix_1MSalt
Info: BINARY OUTPUT FILES WILL BE USED
Info: RESTART FILENAME       helix_1MSalt.restart
Info: RESTART FREQUENCY      500
Info: BINARY RESTART FILES WILL BE USED
Info: SWITCHING ACTIVE
Info: SWITCHING ON           13
Info: SWITCHING OFF          14
Info: PAIRLIST DISTANCE      16
Info: PAIRLIST SHRINK RATE   0.01
Info: PAIRLIST GROW RATE     0.01
Info: PAIRLIST TRIGGER       0.3
Info: PAIRLISTS PER CYCLE    2
Info: PAIRLISTS ENABLED
Info: MARGIN                 0
Info: HYDROGEN GROUP CUTOFF  2.5
Info: PATCH DIMENSION        18.5
Info: ENERGY OUTPUT STEPS    100
Info: CROSSTERM ENERGY INCLUDED IN DIHEDRAL
Info: TIMING OUTPUT STEPS    1000
Info: PRESSURE OUTPUT STEPS  100
Info: GBIS GENERALIZED BORN IMPLICIT SOLVENT ACTIVE
Info: GBIS SOLVENT DIELECTRIC: 78.5
Info: GBIS PROTEIN DIELECTRIC: 1
Info: GBIS COULOMB RADIUS OFFSET: 0.09 Ang
Info: GBIS ION CONCENTRATION: 1 M
Info: GBIS DEBYE SCREENING LENGTH: 3.1118 Ang
Info: GBIS DELTA: 1
Info: GBIS BETA: 0.8
Info: GBIS GAMMA: 4.85
Info: GBIS BORN RADIUS CUTOFF: 12 Ang
Info: GBIS MAX BORN RADIUS: 30 Ang
Info: LANGEVIN DYNAMICS ACTIVE
Info: LANGEVIN TEMPERATURE   312
Info: LANGEVIN USING BBK INTEGRATOR
Info: LANGEVIN DAMPING COEFFICIENT IS 1 INVERSE PS
Info: LANGEVIN DYNAMICS NOT APPLIED TO HYDROGENS
Info: FULL ELECTROSTATIC EVALUATION FREQUENCY      2
Info: USING VERLET I (r-RESPA) MTS SCHEME.
Info: C1 SPLITTING OF LONG RANGE ELECTROSTATICS
Info: PLACING ATOMS IN PATCHES BY HYDROGEN GROUPS
Info: RIGID BONDS TO HYDROGEN : ALL
Info:         ERROR TOLERANCE : 1e-008
Info:          MAX ITERATIONS : 100
Info: RIGID WATER USING SETTLE ALGORITHM
Info: RANDOM NUMBER SEED     1528363880
Info: USE HYDROGEN BONDS?    NO
Info: COORDINATE PDB         ../test/helix.pdb
Info: STRUCTURE FILE         ../test/helix.psf
Info: PARAMETER file: CHARMM format!
Info: PARAMETERS             ../common/par_all27_prot_lipid.inp
Info: USING ARITHMETIC MEAN TO COMBINE L-J SIGMA PARAMETERS
Info: SUMMARY OF PARAMETERS:
Info: 180 BONDS
Info: 447 ANGLES
Info: 566 DIHEDRAL
Info: 46 IMPROPER
Info: 6 CROSSTERM
Info: 119 VDW
Info: 0 VDW_PAIRS
Info: 0 NBTHOLE_PAIRS
Info: STRUCTURE SUMMARY:
Info: 204 ATOMS
Info: 203 BONDS
Info: 372 ANGLES
Info: 527 DIHEDRALS
Info: 32 IMPROPERS
Info: 13 CROSSTERMS
Info: 0 EXCLUSIONS
Info: 104 RIGID BONDS
Info: 508 DEGREES OF FREEDOM
Info: 100 HYDROGEN GROUPS
Info: 4 ATOMS IN LARGEST HYDROGEN GROUP
Info: 100 MIGRATION GROUPS
Info: 4 ATOMS IN LARGEST MIGRATION GROUP
Info: TOTAL MASS = 1429.6 amu
Info: TOTAL CHARGE = 2.5332e-007 e
Info: ADDED 1102 IMPLICIT EXCLUSIONS
Info: NONBONDED TABLE R-SQUARED SPACING: 0.0625
Info: NONBONDED TABLE SIZE: 769 POINTS
Info: ORIGINAL ATOMS MINMAX IS 55.764 44.258 -70.769  71.786 63.328 -52.679
Info: ADJUSTED ATOMS MINMAX IS 57.5762 45.7687 -70.08  70.9137 59.1313 -53.23
Info: REMOVING COM VELOCITY -0.546277 0.0667374 -0.254388
TCL: Minimizing for 100 steps
ETITLE: TS BOND ANGLE DIHED IMPRP ELECT VDW BOUNDARY MISC KINETIC TOTAL TEMP POTENTIAL TOTAL3 TEMPAVG
ENERGY: 0 159.9238 145.7517 16.1943 0.0152 -515.5775 882.2380 0.0000 0.0000 0.0000 688.5455 0.0000 688.5455 688.5455 0.0000
ENERGY: 20 33.6246 88.1780 25.0824 9.5933 -536.8511 71.9270 0.0000 0.0000 0.0000 -308.4458 0.0000 -308.4458 -308.4458 0.0000
ENERGY: 40 10.3256 61.4445 30.2434 0.5132 -539.8277 38.8901 0.0000 0.0000 0.0000 -398.4109 0.0000 -398.4109 -398.4109 0.0000
ENERGY: 60 13.3113 45.6579 32.9333 0.4556 -534.5587 4.5558 0.0000 0.0000 0.0000 -437.6448 0.0000 -437.6448 -437.6448 0.0000
ENERGY: 80 12.4136 44.9923 29.4678 0.5987 -530.4362 -14.2552 0.0000 0.0000 0.0000 -457.2191 0.0000 -457.2191 -457.2191 0.0000
ENERGY: 100 11.0848 47.1054 26.6899 1.1070 -536.0520 -17.7801 0.0000 0.0000 0.0000 -467.8450 0.0000 -467.8450 -467.8450 0.0000
TCL: Running for 200000 steps
ETITLE: TS BOND ANGLE DIHED IMPRP ELECT VDW BOUNDARY MISC KINETIC TOTAL TEMP POTENTIAL TOTAL3 TEMPAVG
ENERGY: 100 11.0848 47.1054 26.6899 1.1070 -536.0520 -17.7801 0.0000 0.0000 161.4481 -306.3969 319.8598 -467.8450 -306.6192 319.8598
ENERGY: 40100 39.6535 118.9188 32.8834 6.9622 -524.2579 -40.2964 0.0000 0.0000 146.8461 -219.2902 290.9304 -366.1363 -217.2491 281.8237
ENERGY: 80100 37.2560 111.3515 40.3158 5.7692 -517.6910 -31.6628 0.0000 0.0000 161.8111 -192.8501 320.5789 -354.6612 -190.6054 312.6868
ENERGY: 120100 42.6291 105.8211 42.8061 7.7367 -511.7567 -37.0039 0.0000 0.0000 151.9921 -197.7754 301.1256 -349.7676 -196.3369 300.5307
ENERGY: 160100 39.0672 122.8905 38.8831 8.2049 -511.9512 -43.4134 0.0000 0.0000 159.1632 -187.1556 315.3328 -346.3187 -185.0330 313.9816
ENERGY: 200100 35.7381 126.3927 38.8146 4.8320 -519.7473 -44.4230 0.0000 0.0000 148.4734 -209.9194 294.1544 -358.3928 -208.3713 294.1695
