Info: SIMULATION PARAMETERS:
Info: TIMESTEP               2
Info: NUMBER OF STEPS        0
Info: STEPS PER CYCLE        10
Info: FIRST LDB TIMESTEP     50
Info: LAST LDB TIMESTEP     -1
Info: HOM BACKGROUND SCALING 1
Info: MIN ATOMS PER PATCH    40
Info: INITIAL TEMPERATURE    312
Info: CENTER OF MASS MOVING INITIALLY? NO
Info: DIELECTRIC             1
Info: EXCLUDE                SCALED ONE-FOUR
Info: 1-4 ELECTROSTATICS SCALED BY 1
Info: MODIFIED 1-4 VDW PARAMETERS WILL BE USED
Info: DCD FILENAME           helix_100MSalt.dcd
Info: DCD FREQUENCY          250
Info: DCD FIRST STEP         250
Info: XST FILENAME           helix_100MSalt.xst
Info: XST FREQUENCY          250
Info: NO VELOCITY DCD OUTPUT
Info: NO FORCE DCD OUTPUT
Info: OUTPUT FILENAME        helix_100MSalt
Info: BINARY OUTPUT FILES WILL BE USED
Info: RESTART FILENAME       helix_100MSalt.restart
Info: RESTART FREQUENCY      500
Info: BINARY RESTART FILES WILL BE USED
Info: SWITCHING ACTIVE
Info: SWITCHING ON           13
Info: SWITCHING OFF          14
Info: PAIRLIST DISTANCE      16
Info: PAIRLIST SHRINK RATE   0.01
Info: PAIRLIST GROW RATE     0.01
Info: PAIRLIST TRIGGER       0.3
Info: PAIRLISTS PER CYCLE    2
Info: PAIRLISTS ENABLED
Info: MARGIN                 0
Info: HYDROGEN GROUP CUTOFF  2.5
Info: PATCH DIMENSION        18.5
Info: ENERGY OUTPUT STEPS    100
Info: CROSSTERM ENERGY INCLUDED IN DIHEDRAL
Info: TIMING OUTPUT STEPS    1000
Info: PRESSURE OUTPUT STEPS  100
Info: GBIS GENERALIZED BORN IMPLICIT SOLVENT ACTIVE
Info: GBIS SOLVENT DIELECTRIC: 78.5
Info: GBIS PROTEIN DIELECTRIC: 1
Info: GBIS COULOMB RADIUS OFFSET: 0.09 Ang
Info: GBIS ION CONCENTRATION: 100 M
Info: GBIS DEBYE SCREENING LENGTH: 0.31118 Ang
Info: GBIS DELTA: 1
Info: GBIS BETA: 0.8
Info: GBIS GAMMA: 4.85
Info: GBIS BORN RADIUS CUTOFF: 12 Ang
Info: GBIS MAX BORN RADIUS: 30 Ang
Info: LANGEVIN DYNAMICS ACTIVE
Info: LANGEVIN TEMPERATURE   312
Info: LANGEVIN USING BBK INTEGRATOR
Info: LANGEVIN DAMPING COEFFICIENT IS 1 INVERSE PS
Info: LANGEVIN DYNAMICS NOT APPLIED TO HYDROGENS
Info: FULL ELECTROSTATIC EVALUATION FREQUENCY      2
Info: USING VERLET I (r-RESPA) MTS SCHEME.
Info: C1 SPLITTING OF LONG RANGE ELECTROSTATICS
Info: PLACING ATOMS IN PATCHES BY HYDROGEN GROUPS
Info: RIGID BONDS TO HYDROGEN : ALL
Info:         ERROR TOLERANCE : 1e-008
Info:          MAX ITERATIONS : 100
Info: RIGID WATER USING SETTLE ALGORITHM
Info: RANDOM NUMBER SEED     1528364662
Info: USE HYDROGEN BONDS?    NO
Info: COORDINATE PDB         ../test/helix.pdb
Info: STRUCTURE FILE         ../test/helix.psf
Info: PARAMETER file: CHARMM format!
Info: PARAMETERS             ../common/par_all27_prot_lipid.inp
Info: USING ARITHMETIC MEAN TO COMBINE L-J SIGMA PARAMETERS
Info: SUMMARY OF PARAMETERS:
Info: 180 BONDS
Info: 447 ANGLES
Info: 566 DIHEDRAL
Info: 46 IMPROPER
Info: 6 CROSSTERM
Info: 119 VDW
Info: 0 VDW_PAIRS
Info: 0 NBTHOLE_PAIRS
Info: STRUCTURE SUMMARY:
Info: 204 ATOMS
Info: 203 BONDS
Info: 372 ANGLES
Info: 527 DIHEDRALS
Info: 32 IMPROPERS
Info: 13 CROSSTERMS
Info: 0 EXCLUSIONS
Info: 104 RIGID BONDS
Info: 508 DEGREES OF FREEDOM
Info: 100 HYDROGEN GROUPS
Info: 4 ATOMS IN LARGEST HYDROGEN GROUP
Info: 100 MIGRATION GROUPS
Info: 4 ATOMS IN LARGEST MIGRATION GROUP
Info: TOTAL MASS = 1429.6 amu
Info: TOTAL CHARGE = 2.5332e-007 e
Info: ADDED 1102 IMPLICIT EXCLUSIONS
Info: NONBONDED TABLE R-SQUARED SPACING: 0.0625
Info: NONBONDED TABLE SIZE: 769 POINTS
Info: ORIGINAL ATOMS MINMAX IS 55.764 44.258 -70.769  71.786 63.328 -52.679
Info: ADJUSTED ATOMS MINMAX IS 57.5762 45.7687 -70.08  70.9137 59.1313 -53.23
Info: REMOVING COM VELOCITY 0.552738 -0.443144 -0.481757
TCL: Minimizing for 100 steps
ETITLE: TS BOND ANGLE DIHED IMPRP ELECT VDW BOUNDARY MISC KINETIC TOTAL TEMP POTENTIAL TOTAL3 TEMPAVG
ENERGY: 0 159.9238 145.7517 16.1943 0.0152 -520.0804 882.2380 0.0000 0.0000 0.0000 684.0426 0.0000 684.0426 684.0426 0.0000
ENERGY: 20 33.6594 88.1954 25.0801 9.5952 -541.5624 71.9059 0.0000 0.0000 0.0000 -313.1265 0.0000 -313.1265 -313.1265 0.0000
ENERGY: 40 12.3878 57.5091 33.1577 0.5368 -540.6976 23.2607 0.0000 0.0000 0.0000 -413.8454 0.0000 -413.8454 -413.8454 0.0000
ENERGY: 60 13.3285 45.7044 32.9247 0.4541 -539.2650 4.5019 0.0000 0.0000 0.0000 -442.3512 0.0000 -442.3512 -442.3512 0.0000
ENERGY: 80 12.3822 45.0206 29.4540 0.5678 -535.1237 -14.2229 0.0000 0.0000 0.0000 -461.9218 0.0000 -461.9218 -461.9218 0.0000
ENERGY: 100 11.1527 47.0705 26.6871 1.1117 -540.7608 -17.8459 0.0000 0.0000 0.0000 -472.5847 0.0000 -472.5847 -472.5847 0.0000
TCL: Running for 200000 steps
ETITLE: TS BOND ANGLE DIHED IMPRP ELECT VDW BOUNDARY MISC KINETIC TOTAL TEMP POTENTIAL TOTAL3 TEMPAVG
ENERGY: 100 11.1527 47.0705 26.6871 1.1117 -540.7608 -17.8459 0.0000 0.0000 144.6025 -327.9822 286.4854 -472.5847 -328.2087 286.4854
ENERGY: 40100 51.2360 142.9749 37.7756 9.2383 -533.6190 -33.3742 0.0000 0.0000 147.5288 -178.2396 292.2829 -325.7684 -177.2014 321.9542
ENERGY: 80100 38.5516 103.4516 36.8252 9.2513 -530.0605 -32.8820 0.0000 0.0000 157.6978 -217.1650 312.4297 -374.8628 -214.9927 297.7911
ENERGY: 120100 31.9416 127.9814 37.4222 6.8577 -534.9317 -33.7842 0.0000 0.0000 167.7721 -196.7409 332.3889 -364.5130 -194.4713 309.3428
ENERGY: 160100 42.6415 117.7447 39.5366 4.9518 -520.1475 -38.4650 0.0000 0.0000 155.2388 -198.4992 307.5579 -353.7379 -196.5737 305.2249
ENERGY: 200100 50.6450 118.6482 44.1254 9.1383 -526.4391 -29.5110 0.0000 0.0000 135.5294 -197.8638 268.5099 -333.3933 -195.8389 302.3726
