Info: SIMULATION PARAMETERS:
Info: TIMESTEP               2
Info: NUMBER OF STEPS        0
Info: STEPS PER CYCLE        10
Info: FIRST LDB TIMESTEP     50
Info: LAST LDB TIMESTEP     -1
Info: HOM BACKGROUND SCALING 1
Info: MIN ATOMS PER PATCH    40
Info: INITIAL TEMPERATURE    323
Info: CENTER OF MASS MOVING INITIALLY? NO
Info: DIELECTRIC             1
Info: EXCLUDE                SCALED ONE-FOUR
Info: 1-4 ELECTROSTATICS SCALED BY 1
Info: MODIFIED 1-4 VDW PARAMETERS WILL BE USED
Info: DCD FILENAME           helix_hot_eq.dcd
Info: DCD FREQUENCY          250
Info: DCD FIRST STEP         250
Info: XST FILENAME           helix_hot_eq.xst
Info: XST FREQUENCY          250
Info: NO VELOCITY DCD OUTPUT
Info: NO FORCE DCD OUTPUT
Info: OUTPUT FILENAME        helix_hot_eq
Info: BINARY OUTPUT FILES WILL BE USED
Info: RESTART FILENAME       helix_hot_eq.restart
Info: RESTART FREQUENCY      500
Info: BINARY RESTART FILES WILL BE USED
Info: SWITCHING ACTIVE
Info: SWITCHING ON           13
Info: SWITCHING OFF          14
Info: PAIRLIST DISTANCE      16
Info: PAIRLIST SHRINK RATE   0.01
Info: PAIRLIST GROW RATE     0.01
Info: PAIRLIST TRIGGER       0.3
Info: PAIRLISTS PER CYCLE    2
Info: PAIRLISTS ENABLED
Info: MARGIN                 0
Info: HYDROGEN GROUP CUTOFF  2.5
Info: PATCH DIMENSION        18.5
Info: ENERGY OUTPUT STEPS    100
Info: CROSSTERM ENERGY INCLUDED IN DIHEDRAL
Info: TIMING OUTPUT STEPS    1000
Info: PRESSURE OUTPUT STEPS  100
Info: GBIS GENERALIZED BORN IMPLICIT SOLVENT ACTIVE
Info: GBIS SOLVENT DIELECTRIC: 78.5
Info: GBIS PROTEIN DIELECTRIC: 1
Info: GBIS COULOMB RADIUS OFFSET: 0.09 Ang
Info: GBIS ION CONCENTRATION: 0.3 M
Info: GBIS DEBYE SCREENING LENGTH: 5.78063 Ang
Info: GBIS DELTA: 1
Info: GBIS BETA: 0.8
Info: GBIS GAMMA: 4.85
Info: GBIS BORN RADIUS CUTOFF: 12 Ang
Info: GBIS MAX BORN RADIUS: 30 Ang
Info: LANGEVIN DYNAMICS ACTIVE
Info: LANGEVIN TEMPERATURE   323
Info: LANGEVIN USING BBK INTEGRATOR
Info: LANGEVIN DAMPING COEFFICIENT IS 1 INVERSE PS
Info: LANGEVIN DYNAMICS NOT APPLIED TO HYDROGENS
Info: FULL ELECTROSTATIC EVALUATION FREQUENCY      2
Info: USING VERLET I (r-RESPA) MTS SCHEME.
Info: C1 SPLITTING OF LONG RANGE ELECTROSTATICS
Info: PLACING ATOMS IN PATCHES BY HYDROGEN GROUPS
Info: RIGID BONDS TO HYDROGEN : ALL
Info:         ERROR TOLERANCE : 1e-008
Info:          MAX ITERATIONS : 100
Info: RIGID WATER USING SETTLE ALGORITHM
Info: RANDOM NUMBER SEED     1528360362
Info: USE HYDROGEN BONDS?    NO
Info: COORDINATE PDB         ../test/helix_output_eq.pdb
Info: STRUCTURE FILE         ../test/helix.psf
Info: PARAMETER file: CHARMM format!
Info: PARAMETERS             ../common/par_all27_prot_lipid.inp
Info: USING ARITHMETIC MEAN TO COMBINE L-J SIGMA PARAMETERS
Info: SUMMARY OF PARAMETERS:
Info: 180 BONDS
Info: 447 ANGLES
Info: 566 DIHEDRAL
Info: 46 IMPROPER
Info: 6 CROSSTERM
Info: 119 VDW
Info: 0 VDW_PAIRS
Info: 0 NBTHOLE_PAIRS
Info: STRUCTURE SUMMARY:
Info: 204 ATOMS
Info: 203 BONDS
Info: 372 ANGLES
Info: 527 DIHEDRALS
Info: 32 IMPROPERS
Info: 13 CROSSTERMS
Info: 0 EXCLUSIONS
Info: 104 RIGID BONDS
Info: 508 DEGREES OF FREEDOM
Info: 100 HYDROGEN GROUPS
Info: 4 ATOMS IN LARGEST HYDROGEN GROUP
Info: 100 MIGRATION GROUPS
Info: 4 ATOMS IN LARGEST MIGRATION GROUP
Info: TOTAL MASS = 1429.6 amu
Info: TOTAL CHARGE = 2.5332e-007 e
Info: ADDED 1102 IMPLICIT EXCLUSIONS
Info: NONBONDED TABLE R-SQUARED SPACING: 0.0625
Info: NONBONDED TABLE SIZE: 769 POINTS
Info: ORIGINAL ATOMS MINMAX IS 48.894 29.992 -61.455  72.476 50.829 -42.327
Info: ADJUSTED ATOMS MINMAX IS 50.4155 31.1834 -58.8496  69.0405 48.4596 -45.5034
Info: REMOVING COM VELOCITY 0.552697 -0.402635 0.476795
TCL: Minimizing for 100 steps
ETITLE: TS BOND ANGLE DIHED IMPRP ELECT VDW BOUNDARY MISC KINETIC TOTAL TEMP POTENTIAL TOTAL3 TEMPAVG
ENERGY: 0 40.0043 121.3580 34.7504 7.2906 -516.8472 -35.5947 0.0000 0.0000 0.0000 -349.0387 0.0000 -349.0387 -349.0387 0.0000
ENERGY: 20 21.6662 52.2611 30.9515 5.9824 -518.6981 -41.3558 0.0000 0.0000 0.0000 -449.1928 0.0000 -449.1928 -449.1928 0.0000
ENERGY: 40 11.2453 40.6752 28.7154 1.3352 -517.3963 -41.1286 0.0000 0.0000 0.0000 -476.5539 0.0000 -476.5539 -476.5539 0.0000
ENERGY: 60 9.9799 38.5596 26.9536 0.8476 -517.3756 -41.2860 0.0000 0.0000 0.0000 -482.3209 0.0000 -482.3209 -482.3209 0.0000
ENERGY: 80 14.1862 44.2296 23.7614 1.2538 -519.0885 -39.9821 0.0000 0.0000 0.0000 -475.6396 0.0000 -475.6396 -475.6396 0.0000
ENERGY: 100 9.6619 36.7506 23.1024 1.0036 -518.4751 -40.6492 0.0000 0.0000 0.0000 -488.6057 0.0000 -488.6057 -488.6057 0.0000
TCL: Running for 100000 steps
ETITLE: TS BOND ANGLE DIHED IMPRP ELECT VDW BOUNDARY MISC KINETIC TOTAL TEMP POTENTIAL TOTAL3 TEMPAVG
ENERGY: 100 9.6619 36.7506 23.1024 1.0036 -518.4751 -40.6492 0.0000 0.0000 165.9766 -322.6292 328.8316 -488.6057 -322.7682 328.8316
ENERGY: 20100 46.8635 128.4326 38.3250 8.2713 -519.2529 -28.2422 0.0000 0.0000 163.4024 -162.2002 323.7316 -325.6026 -159.6536 330.7346
ENERGY: 40100 35.6716 125.1818 43.2454 9.1775 -521.6412 -37.8337 0.0000 0.0000 165.8185 -180.3801 328.5184 -346.1986 -177.6428 311.7806
ENERGY: 60100 41.5320 114.9461 32.9239 4.5699 -516.1602 -33.7479 0.0000 0.0000 167.2519 -188.6844 331.3583 -355.9363 -186.8604 309.5513
ENERGY: 80100 52.0596 121.2935 41.3722 7.2873 -522.3486 -36.6481 0.0000 0.0000 172.2078 -164.7763 341.1768 -336.9841 -162.8476 334.2922
ENERGY: 100100 43.2872 133.6712 35.7150 9.0195 -528.2540 -34.2786 0.0000 0.0000 174.5067 -166.3329 345.7314 -340.8397 -164.1169 331.4710
