Info: SIMULATION PARAMETERS:
Info: TIMESTEP               2
Info: NUMBER OF STEPS        0
Info: STEPS PER CYCLE        10
Info: FIRST LDB TIMESTEP     50
Info: LAST LDB TIMESTEP     -1
Info: HOM BACKGROUND SCALING 1
Info: MIN ATOMS PER PATCH    40
Info: INITIAL TEMPERATURE    473
Info: CENTER OF MASS MOVING INITIALLY? NO
Info: DIELECTRIC             1
Info: EXCLUDE                SCALED ONE-FOUR
Info: 1-4 ELECTROSTATICS SCALED BY 1
Info: MODIFIED 1-4 VDW PARAMETERS WILL BE USED
Info: DCD FILENAME           helix_200C.dcd
Info: DCD FREQUENCY          250
Info: DCD FIRST STEP         250
Info: XST FILENAME           helix_200C.xst
Info: XST FREQUENCY          250
Info: NO VELOCITY DCD OUTPUT
Info: NO FORCE DCD OUTPUT
Info: OUTPUT FILENAME        helix_200C
Info: BINARY OUTPUT FILES WILL BE USED
Info: RESTART FILENAME       helix_200C.restart
Info: RESTART FREQUENCY      500
Info: BINARY RESTART FILES WILL BE USED
Info: SWITCHING ACTIVE
Info: SWITCHING ON           13
Info: SWITCHING OFF          14
Info: PAIRLIST DISTANCE      16
Info: PAIRLIST SHRINK RATE   0.01
Info: PAIRLIST GROW RATE     0.01
Info: PAIRLIST TRIGGER       0.3
Info: PAIRLISTS PER CYCLE    2
Info: PAIRLISTS ENABLED
Info: MARGIN                 0
Info: HYDROGEN GROUP CUTOFF  2.5
Info: PATCH DIMENSION        18.5
Info: ENERGY OUTPUT STEPS    100
Info: CROSSTERM ENERGY INCLUDED IN DIHEDRAL
Info: TIMING OUTPUT STEPS    1000
Info: PRESSURE OUTPUT STEPS  100
Info: GBIS GENERALIZED BORN IMPLICIT SOLVENT ACTIVE
Info: GBIS SOLVENT DIELECTRIC: 78.5
Info: GBIS PROTEIN DIELECTRIC: 1
Info: GBIS COULOMB RADIUS OFFSET: 0.09 Ang
Info: GBIS ION CONCENTRATION: 0.3 M
Info: GBIS DEBYE SCREENING LENGTH: 6.99527 Ang
Info: GBIS DELTA: 1
Info: GBIS BETA: 0.8
Info: GBIS GAMMA: 4.85
Info: GBIS BORN RADIUS CUTOFF: 12 Ang
Info: GBIS MAX BORN RADIUS: 30 Ang
Info: LANGEVIN DYNAMICS ACTIVE
Info: LANGEVIN TEMPERATURE   473
Info: LANGEVIN USING BBK INTEGRATOR
Info: LANGEVIN DAMPING COEFFICIENT IS 1 INVERSE PS
Info: LANGEVIN DYNAMICS NOT APPLIED TO HYDROGENS
Info: FULL ELECTROSTATIC EVALUATION FREQUENCY      2
Info: USING VERLET I (r-RESPA) MTS SCHEME.
Info: C1 SPLITTING OF LONG RANGE ELECTROSTATICS
Info: PLACING ATOMS IN PATCHES BY HYDROGEN GROUPS
Info: RIGID BONDS TO HYDROGEN : ALL
Info:         ERROR TOLERANCE : 1e-008
Info:          MAX ITERATIONS : 100
Info: RIGID WATER USING SETTLE ALGORITHM
Info: RANDOM NUMBER SEED     1528365692
Info: USE HYDROGEN BONDS?    NO
Info: COORDINATE PDB         ../test/helix_output_eq.pdb
Info: STRUCTURE FILE         ../test/helix.psf
Info: PARAMETER file: CHARMM format!
Info: PARAMETERS             ../common/par_all27_prot_lipid.inp
Info: USING ARITHMETIC MEAN TO COMBINE L-J SIGMA PARAMETERS
Info: SUMMARY OF PARAMETERS:
Info: 180 BONDS
Info: 447 ANGLES
Info: 566 DIHEDRAL
Info: 46 IMPROPER
Info: 6 CROSSTERM
Info: 119 VDW
Info: 0 VDW_PAIRS
Info: 0 NBTHOLE_PAIRS
Info: STRUCTURE SUMMARY:
Info: 204 ATOMS
Info: 203 BONDS
Info: 372 ANGLES
Info: 527 DIHEDRALS
Info: 32 IMPROPERS
Info: 13 CROSSTERMS
Info: 0 EXCLUSIONS
Info: 104 RIGID BONDS
Info: 508 DEGREES OF FREEDOM
Info: 100 HYDROGEN GROUPS
Info: 4 ATOMS IN LARGEST HYDROGEN GROUP
Info: 100 MIGRATION GROUPS
Info: 4 ATOMS IN LARGEST MIGRATION GROUP
Info: TOTAL MASS = 1429.6 amu
Info: TOTAL CHARGE = 2.5332e-007 e
Info: ADDED 1102 IMPLICIT EXCLUSIONS
Info: NONBONDED TABLE R-SQUARED SPACING: 0.0625
Info: NONBONDED TABLE SIZE: 769 POINTS
Info: ORIGINAL ATOMS MINMAX IS 48.894 29.992 -61.455  72.476 50.829 -42.327
Info: ADJUSTED ATOMS MINMAX IS 50.4155 31.1834 -58.8496  69.0405 48.4596 -45.5034
Info: REMOVING COM VELOCITY -0.00613563 1.09236 0.675837
TCL: Minimizing for 100 steps
ETITLE: TS BOND ANGLE DIHED IMPRP ELECT VDW BOUNDARY MISC KINETIC TOTAL TEMP POTENTIAL TOTAL3 TEMPAVG
ENERGY: 0 40.0043 121.3580 34.7504 7.2906 -516.5960 -35.5947 0.0000 0.0000 0.0000 -348.7875 0.0000 -348.7875 -348.7875 0.0000
ENERGY: 20 21.6658 52.2600 30.9519 5.9828 -518.4429 -41.3557 0.0000 0.0000 0.0000 -448.9382 0.0000 -448.9382 -448.9382 0.0000
ENERGY: 40 11.5978 42.4491 29.1083 0.9228 -517.4894 -41.1728 0.0000 0.0000 0.0000 -474.5842 0.0000 -474.5842 -474.5842 0.0000
ENERGY: 60 10.4238 38.5713 26.7675 0.8313 -517.0091 -41.3152 0.0000 0.0000 0.0000 -481.7303 0.0000 -481.7303 -481.7303 0.0000
ENERGY: 80 9.1464 37.9551 24.9652 0.8882 -517.7932 -40.8687 0.0000 0.0000 0.0000 -485.7070 0.0000 -485.7070 -485.7070 0.0000
ENERGY: 100 9.5932 36.4602 23.9689 0.8539 -517.7156 -41.0299 0.0000 0.0000 0.0000 -487.8694 0.0000 -487.8694 -487.8694 0.0000
TCL: Running for 200000 steps
ETITLE: TS BOND ANGLE DIHED IMPRP ELECT VDW BOUNDARY MISC KINETIC TOTAL TEMP POTENTIAL TOTAL3 TEMPAVG
ENERGY: 100 9.5932 36.4602 23.9689 0.8539 -517.7156 -41.0299 0.0000 0.0000 248.9384 -238.9310 493.1949 -487.8694 -239.1130 493.1949
ENERGY: 40100 62.3329 157.8486 65.8154 10.1279 -506.0247 -22.6472 0.0000 0.0000 234.2805 1.7335 464.1548 -232.5471 4.7102 471.0735
ENERGY: 80100 51.2102 181.0331 59.3802 11.1330 -515.4025 -15.1599 0.0000 0.0000 223.4111 -4.3948 442.6204 -227.8059 -1.5938 450.2409
ENERGY: 120100 51.1244 156.3592 60.1192 10.2780 -502.5326 -7.8901 0.0000 0.0000 222.1093 -10.4325 440.0413 -232.5418 -9.1756 455.2329
ENERGY: 160100 44.9293 169.1192 42.9735 9.4263 -527.7597 -8.8230 0.0000 0.0000 232.8344 -37.3000 461.2897 -270.1344 -34.3094 438.3230
ENERGY: 200100 63.8269 165.7450 44.7293 9.5802 -507.6991 -24.5077 0.0000 0.0000 229.0968 -19.2285 453.8850 -248.3254 -16.5606 459.0263
