Info: SIMULATION PARAMETERS:
Info: TIMESTEP               2
Info: NUMBER OF STEPS        0
Info: STEPS PER CYCLE        10
Info: FIRST LDB TIMESTEP     50
Info: LAST LDB TIMESTEP     -1
Info: HOM BACKGROUND SCALING 1
Info: MIN ATOMS PER PATCH    40
Info: INITIAL TEMPERATURE    363
Info: CENTER OF MASS MOVING INITIALLY? NO
Info: DIELECTRIC             1
Info: EXCLUDE                SCALED ONE-FOUR
Info: 1-4 ELECTROSTATICS SCALED BY 1
Info: MODIFIED 1-4 VDW PARAMETERS WILL BE USED
Info: DCD FILENAME           helix_hot_output_eq.dcd
Info: DCD FREQUENCY          250
Info: DCD FIRST STEP         250
Info: XST FILENAME           helix_hot_output_eq.xst
Info: XST FREQUENCY          250
Info: NO VELOCITY DCD OUTPUT
Info: NO FORCE DCD OUTPUT
Info: OUTPUT FILENAME        helix_hot_output_eq
Info: BINARY OUTPUT FILES WILL BE USED
Info: RESTART FILENAME       helix_hot_output_eq.restart
Info: RESTART FREQUENCY      500
Info: BINARY RESTART FILES WILL BE USED
Info: SWITCHING ACTIVE
Info: SWITCHING ON           13
Info: SWITCHING OFF          14
Info: PAIRLIST DISTANCE      16
Info: PAIRLIST SHRINK RATE   0.01
Info: PAIRLIST GROW RATE     0.01
Info: PAIRLIST TRIGGER       0.3
Info: PAIRLISTS PER CYCLE    2
Info: PAIRLISTS ENABLED
Info: MARGIN                 0
Info: HYDROGEN GROUP CUTOFF  2.5
Info: PATCH DIMENSION        18.5
Info: ENERGY OUTPUT STEPS    100
Info: CROSSTERM ENERGY INCLUDED IN DIHEDRAL
Info: TIMING OUTPUT STEPS    1000
Info: PRESSURE OUTPUT STEPS  100
Info: GBIS GENERALIZED BORN IMPLICIT SOLVENT ACTIVE
Info: GBIS SOLVENT DIELECTRIC: 78.5
Info: GBIS PROTEIN DIELECTRIC: 1
Info: GBIS COULOMB RADIUS OFFSET: 0.09 Ang
Info: GBIS ION CONCENTRATION: 0.3 M
Info: GBIS DEBYE SCREENING LENGTH: 6.12812 Ang
Info: GBIS DELTA: 1
Info: GBIS BETA: 0.8
Info: GBIS GAMMA: 4.85
Info: GBIS BORN RADIUS CUTOFF: 12 Ang
Info: GBIS MAX BORN RADIUS: 30 Ang
Info: LANGEVIN DYNAMICS ACTIVE
Info: LANGEVIN TEMPERATURE   363
Info: LANGEVIN USING BBK INTEGRATOR
Info: LANGEVIN DAMPING COEFFICIENT IS 1 INVERSE PS
Info: LANGEVIN DYNAMICS NOT APPLIED TO HYDROGENS
Info: FULL ELECTROSTATIC EVALUATION FREQUENCY      2
Info: USING VERLET I (r-RESPA) MTS SCHEME.
Info: C1 SPLITTING OF LONG RANGE ELECTROSTATICS
Info: PLACING ATOMS IN PATCHES BY HYDROGEN GROUPS
Info: RIGID BONDS TO HYDROGEN : ALL
Info:         ERROR TOLERANCE : 1e-008
Info:          MAX ITERATIONS : 100
Info: RIGID WATER USING SETTLE ALGORITHM
Info: RANDOM NUMBER SEED     1528361264
Info: USE HYDROGEN BONDS?    NO
Info: COORDINATE PDB         ../test/helix_output_eq.pdb
Info: STRUCTURE FILE         ../test/helix.psf
Info: PARAMETER file: CHARMM format!
Info: PARAMETERS             ../common/par_all27_prot_lipid.inp
Info: USING ARITHMETIC MEAN TO COMBINE L-J SIGMA PARAMETERS
Info: SUMMARY OF PARAMETERS:
Info: 180 BONDS
Info: 447 ANGLES
Info: 566 DIHEDRAL
Info: 46 IMPROPER
Info: 6 CROSSTERM
Info: 119 VDW
Info: 0 VDW_PAIRS
Info: 0 NBTHOLE_PAIRS
Info: STRUCTURE SUMMARY:
Info: 204 ATOMS
Info: 203 BONDS
Info: 372 ANGLES
Info: 527 DIHEDRALS
Info: 32 IMPROPERS
Info: 13 CROSSTERMS
Info: 0 EXCLUSIONS
Info: 104 RIGID BONDS
Info: 508 DEGREES OF FREEDOM
Info: 100 HYDROGEN GROUPS
Info: 4 ATOMS IN LARGEST HYDROGEN GROUP
Info: 100 MIGRATION GROUPS
Info: 4 ATOMS IN LARGEST MIGRATION GROUP
Info: TOTAL MASS = 1429.6 amu
Info: TOTAL CHARGE = 2.5332e-007 e
Info: ADDED 1102 IMPLICIT EXCLUSIONS
Info: NONBONDED TABLE R-SQUARED SPACING: 0.0625
Info: NONBONDED TABLE SIZE: 769 POINTS
Info: ORIGINAL ATOMS MINMAX IS 48.894 29.992 -61.455  72.476 50.829 -42.327
Info: ADJUSTED ATOMS MINMAX IS 50.4155 31.1834 -58.8496  69.0405 48.4596 -45.5034
Info: REMOVING COM VELOCITY 0.156665 0.741086 -0.0441694
TCL: Minimizing for 100 steps
ETITLE: TS BOND ANGLE DIHED IMPRP ELECT VDW BOUNDARY MISC KINETIC TOTAL TEMP POTENTIAL TOTAL3 TEMPAVG
ENERGY: 0 40.0043 121.3580 34.7504 7.2906 -516.7655 -35.5947 0.0000 0.0000 0.0000 -348.9570 0.0000 -348.9570 -348.9570 0.0000
ENERGY: 20 21.6653 52.2602 30.9516 5.9822 -518.6152 -41.3558 0.0000 0.0000 0.0000 -449.1117 0.0000 -449.1117 -449.1117 0.0000
ENERGY: 40 11.5893 42.4585 29.1114 0.9215 -517.6642 -41.1722 0.0000 0.0000 0.0000 -474.7557 0.0000 -474.7557 -474.7557 0.0000
ENERGY: 60 10.1329 38.8574 27.3578 0.9198 -517.4744 -41.2562 0.0000 0.0000 0.0000 -481.4628 0.0000 -481.4628 -481.4628 0.0000
ENERGY: 80 9.6993 37.3848 25.5876 1.0100 -517.6204 -41.0061 0.0000 0.0000 0.0000 -484.9450 0.0000 -484.9450 -484.9450 0.0000
ENERGY: 100 9.6809 36.8495 23.4683 0.9589 -518.3963 -40.6447 0.0000 0.0000 0.0000 -488.0834 0.0000 -488.0834 -488.0834 0.0000
TCL: Running for 200000 steps
ETITLE: TS BOND ANGLE DIHED IMPRP ELECT VDW BOUNDARY MISC KINETIC TOTAL TEMP POTENTIAL TOTAL3 TEMPAVG
ENERGY: 100 9.6809 36.8495 23.4683 0.9589 -518.3963 -40.6447 0.0000 0.0000 194.6007 -293.4827 385.5415 -488.0834 -293.6329 385.5415
ENERGY: 40100 45.2481 133.1225 39.1482 9.1907 -518.7551 -36.3455 0.0000 0.0000 184.8589 -143.5322 366.2410 -328.3911 -141.1992 357.9580
ENERGY: 80100 44.7938 143.2909 50.8891 6.0170 -511.3805 -27.8762 0.0000 0.0000 177.1091 -117.1568 350.8872 -294.2659 -114.6086 362.5713
ENERGY: 120100 44.6141 135.9194 37.7226 5.3258 -510.8321 -36.3896 0.0000 0.0000 168.5602 -155.0797 333.9501 -323.6399 -152.7561 337.6004
ENERGY: 160100 46.2832 131.2732 42.2899 6.1930 -510.2790 -28.7584 0.0000 0.0000 174.9961 -138.0021 346.7009 -312.9981 -135.7511 359.2869
ENERGY: 200100 45.5560 162.6830 46.3906 7.0586 -511.4463 -38.3202 0.0000 0.0000 178.2607 -109.8176 353.1687 -288.0783 -107.9095 376.2092
