Info: SIMULATION PARAMETERS:
Info: TIMESTEP               2
Info: NUMBER OF STEPS        0
Info: STEPS PER CYCLE        10
Info: FIRST LDB TIMESTEP     50
Info: LAST LDB TIMESTEP     -1
Info: HOM BACKGROUND SCALING 1
Info: MIN ATOMS PER PATCH    40
Info: INITIAL TEMPERATURE    310
Info: CENTER OF MASS MOVING INITIALLY? NO
Info: DIELECTRIC             1
Info: EXCLUDE                SCALED ONE-FOUR
Info: 1-4 ELECTROSTATICS SCALED BY 1
Info: MODIFIED 1-4 VDW PARAMETERS WILL BE USED
Info: DCD FILENAME           helix_gbis_eq.dcd
Info: DCD FREQUENCY          250
Info: DCD FIRST STEP         250
Info: XST FILENAME           helix_gbis_eq.xst
Info: XST FREQUENCY          250
Info: NO VELOCITY DCD OUTPUT
Info: NO FORCE DCD OUTPUT
Info: OUTPUT FILENAME        helix_gbis_eq
Info: BINARY OUTPUT FILES WILL BE USED
Info: RESTART FILENAME       helix_gbis_eq.restart
Info: RESTART FREQUENCY      500
Info: BINARY RESTART FILES WILL BE USED
Info: SWITCHING ACTIVE
Info: SWITCHING ON           13
Info: SWITCHING OFF          14
Info: PAIRLIST DISTANCE      16
Info: PAIRLIST SHRINK RATE   0.01
Info: PAIRLIST GROW RATE     0.01
Info: PAIRLIST TRIGGER       0.3
Info: PAIRLISTS PER CYCLE    2
Info: PAIRLISTS ENABLED
Info: MARGIN                 0
Info: HYDROGEN GROUP CUTOFF  2.5
Info: PATCH DIMENSION        18.5
Info: ENERGY OUTPUT STEPS    100
Info: CROSSTERM ENERGY INCLUDED IN DIHEDRAL
Info: TIMING OUTPUT STEPS    1000
Info: PRESSURE OUTPUT STEPS  100
Info: GBIS GENERALIZED BORN IMPLICIT SOLVENT ACTIVE
Info: GBIS SOLVENT DIELECTRIC: 78.5
Info: GBIS PROTEIN DIELECTRIC: 1
Info: GBIS COULOMB RADIUS OFFSET: 0.09 Ang
Info: GBIS ION CONCENTRATION: 0.3 M
Info: GBIS DEBYE SCREENING LENGTH: 5.66311 Ang
Info: GBIS DELTA: 1
Info: GBIS BETA: 0.8
Info: GBIS GAMMA: 4.85
Info: GBIS BORN RADIUS CUTOFF: 12 Ang
Info: GBIS MAX BORN RADIUS: 30 Ang
Info: LANGEVIN DYNAMICS ACTIVE
Info: LANGEVIN TEMPERATURE   310
Info: LANGEVIN USING BBK INTEGRATOR
Info: LANGEVIN DAMPING COEFFICIENT IS 1 INVERSE PS
Info: LANGEVIN DYNAMICS NOT APPLIED TO HYDROGENS
Info: FULL ELECTROSTATIC EVALUATION FREQUENCY      2
Info: USING VERLET I (r-RESPA) MTS SCHEME.
Info: C1 SPLITTING OF LONG RANGE ELECTROSTATICS
Info: PLACING ATOMS IN PATCHES BY HYDROGEN GROUPS
Info: RIGID BONDS TO HYDROGEN : ALL
Info:         ERROR TOLERANCE : 1e-008
Info:          MAX ITERATIONS : 100
Info: RIGID WATER USING SETTLE ALGORITHM
Info: RANDOM NUMBER SEED     1528359462
Info: USE HYDROGEN BONDS?    NO
Info: COORDINATE PDB         ../test/helix.pdb
Info: STRUCTURE FILE         ../test/helix.psf
Info: PARAMETER file: CHARMM format!
Info: PARAMETERS             ../common/par_all27_prot_lipid.inp
Info: USING ARITHMETIC MEAN TO COMBINE L-J SIGMA PARAMETERS
Info: SUMMARY OF PARAMETERS:
Info: 180 BONDS
Info: 447 ANGLES
Info: 566 DIHEDRAL
Info: 46 IMPROPER
Info: 6 CROSSTERM
Info: 119 VDW
Info: 0 VDW_PAIRS
Info: 0 NBTHOLE_PAIRS
Info: STRUCTURE SUMMARY:
Info: 204 ATOMS
Info: 203 BONDS
Info: 372 ANGLES
Info: 527 DIHEDRALS
Info: 32 IMPROPERS
Info: 13 CROSSTERMS
Info: 0 EXCLUSIONS
Info: 104 RIGID BONDS
Info: 508 DEGREES OF FREEDOM
Info: 100 HYDROGEN GROUPS
Info: 4 ATOMS IN LARGEST HYDROGEN GROUP
Info: 100 MIGRATION GROUPS
Info: 4 ATOMS IN LARGEST MIGRATION GROUP
Info: TOTAL MASS = 1429.6 amu
Info: TOTAL CHARGE = 2.5332e-007 e
Info: ADDED 1102 IMPLICIT EXCLUSIONS
Info: NONBONDED TABLE R-SQUARED SPACING: 0.0625
Info: NONBONDED TABLE SIZE: 769 POINTS
Info: ORIGINAL ATOMS MINMAX IS 55.764 44.258 -70.769  71.786 63.328 -52.679
Info: ADJUSTED ATOMS MINMAX IS 57.5762 45.7687 -70.08  70.9137 59.1313 -53.23
Info: REMOVING COM VELOCITY -0.627697 -0.324282 0.237658
TCL: Minimizing for 100 steps
ETITLE: TS BOND ANGLE DIHED IMPRP ELECT VDW BOUNDARY MISC KINETIC TOTAL TEMP POTENTIAL TOTAL3 TEMPAVG
ENERGY: 0 159.9238 145.7517 16.1943 0.0152 -514.2001 882.2380 0.0000 0.0000 0.0000 689.9229 0.0000 689.9229 689.9229 0.0000
ENERGY: 20 33.6161 88.1810 25.0830 9.5915 -535.4693 71.9308 0.0000 0.0000 0.0000 -307.0670 0.0000 -307.0670 -307.0670 0.0000
ENERGY: 40 10.3260 61.4414 30.2484 0.5135 -538.4580 38.8854 0.0000 0.0000 0.0000 -397.0433 0.0000 -397.0433 -397.0433 0.0000
ENERGY: 60 20.7334 51.6746 32.3362 0.9682 -532.2389 -0.6248 0.0000 0.0000 0.0000 -427.1513 0.0000 -427.1513 -427.1513 0.0000
ENERGY: 80 13.0390 45.1317 29.6126 0.4306 -528.8450 -12.9714 0.0000 0.0000 0.0000 -453.6024 0.0000 -453.6024 -453.6024 0.0000
ENERGY: 100 9.9106 48.0704 27.0851 1.0723 -533.1849 -17.1317 0.0000 0.0000 0.0000 -464.1783 0.0000 -464.1783 -464.1783 0.0000
TCL: Running for 250000 steps
ETITLE: TS BOND ANGLE DIHED IMPRP ELECT VDW BOUNDARY MISC KINETIC TOTAL TEMP POTENTIAL TOTAL3 TEMPAVG
ENERGY: 100 9.9106 48.0704 27.0851 1.0723 -533.1849 -17.1317 0.0000 0.0000 154.8816 -309.2967 306.8502 -464.1783 -309.5023 306.8502
ENERGY: 50100 30.9469 114.7051 38.1439 6.8679 -521.3269 -39.3820 0.0000 0.0000 144.6187 -225.4264 286.5176 -370.0451 -223.1059 283.7635
ENERGY: 100100 38.8192 119.6795 39.6907 4.2467 -519.7188 -29.4416 0.0000 0.0000 164.0159 -182.7085 324.9470 -346.7243 -180.2709 309.0987
ENERGY: 150100 49.8002 118.2402 38.3725 8.0135 -520.9755 -33.2575 0.0000 0.0000 157.5848 -182.2218 312.2059 -339.8066 -180.3015 317.3914
ENERGY: 200100 42.3262 122.3871 40.5127 11.9379 -513.4886 -35.3776 0.0000 0.0000 147.6719 -184.0305 292.5665 -331.7024 -182.5770 315.2792
ENERGY: 250100 38.3720 99.4004 36.3491 10.9478 -506.1951 -31.6333 0.0000 0.0000 152.1603 -200.5988 301.4589 -352.7591 -199.5873 286.1266
